C4H8O
APtclcactv06172222533D 0   0.00000     0.00000
 
 13 12  0  0  0  0  0  0  0  0999 V2000
    1.3237   -0.2970    0.2937 C   0  0  0  0  0  0  0  0  0  0  0  0
    0.0007    0.4242    0.3213 C   0  0  0  0  0  0  0  0  0  0  0  0
   -1.1075   -0.5256   -0.1375 C   0  0  0  0  0  0  0  0  0  0  0  0
   -2.4507    0.2066   -0.1095 C   0  0  0  0  0  0  0  0  0  0  0  0
    2.2485    0.1618   -0.3327 O   0  0  0  0  0  0  0  0  0  0  0  0
    1.4460   -1.2218    0.8379 H   0  0  0  0  0  0  0  0  0  0  0  0
   -0.2077    0.7622    1.3364 H   0  0  0  0  0  0  0  0  0  0  0  0
    0.0418    1.2844   -0.3468 H   0  0  0  0  0  0  0  0  0  0  0  0
   -0.8991   -0.8636   -1.1526 H   0  0  0  0  0  0  0  0  0  0  0  0
   -1.1486   -1.3858    0.5306 H   0  0  0  0  0  0  0  0  0  0  0  0
   -3.2402   -0.4701   -0.4365 H   0  0  0  0  0  0  0  0  0  0  0  0
   -2.6591    0.5446    0.9055 H   0  0  0  0  0  0  0  0  0  0  0  0
   -2.4096    1.0668   -0.7777 H   0  0  0  0  0  0  0  0  0  0  0  0
  1  2  1  0  0  0  0
  2  3  1  0  0  0  0
  3  4  1  0  0  0  0
  1  5  2  0  0  0  0
  1  6  1  0  0  0  0
  2  7  1  0  0  0  0
  2  8  1  0  0  0  0
  3  9  1  0  0  0  0
  3 10  1  0  0  0  0
  4 11  1  0  0  0  0
  4 12  1  0  0  0  0
  4 13  1  0  0  0  0
M  END
$$$$
