C5H10O2
APtclcactv06172222093D 0   0.00000     0.00000
 
 17 16  0  0  0  0  0  0  0  0999 V2000
    1.6572   -0.7473   -0.0000 O   0  0  0  0  0  0  0  0  0  0  0  0
    0.5462    0.0060   -0.0000 C   0  0  0  0  0  0  0  0  0  0  0  0
   -0.8099   -0.6514    0.0000 C   0  0  0  0  0  0  0  0  0  0  0  0
   -1.8980    0.4241   -0.0000 C   0  0  0  0  0  0  0  0  0  0  0  0
   -3.2748   -0.2433    0.0000 C   0  0  0  0  0  0  0  0  0  0  0  0
    0.6334    1.2111    0.0000 O   0  0  0  0  0  0  0  0  0  0  0  0
    2.9288   -0.0464    0.0000 C   0  0  0  0  0  0  0  0  0  0  0  0
   -0.9127   -1.2723   -0.8900 H   0  0  0  0  0  0  0  0  0  0  0  0
   -0.9127   -1.2723    0.8900 H   0  0  0  0  0  0  0  0  0  0  0  0
   -1.7952    1.0450    0.8900 H   0  0  0  0  0  0  0  0  0  0  0  0
   -1.7952    1.0450   -0.8900 H   0  0  0  0  0  0  0  0  0  0  0  0
   -3.3776   -0.8641   -0.8900 H   0  0  0  0  0  0  0  0  0  0  0  0
   -3.3776   -0.8641    0.8900 H   0  0  0  0  0  0  0  0  0  0  0  0
   -4.0500    0.5230    0.0000 H   0  0  0  0  0  0  0  0  0  0  0  0
    2.9990    0.5790   -0.8900 H   0  0  0  0  0  0  0  0  0  0  0  0
    2.9990    0.5790    0.8900 H   0  0  0  0  0  0  0  0  0  0  0  0
    3.7431   -0.7710    0.0000 H   0  0  0  0  0  0  0  0  0  0  0  0
  1  2  1  0  0  0  0
  2  3  1  0  0  0  0
  3  4  1  0  0  0  0
  4  5  1  0  0  0  0
  2  6  2  0  0  0  0
  1  7  1  0  0  0  0
  3  8  1  0  0  0  0
  3  9  1  0  0  0  0
  4 10  1  0  0  0  0
  4 11  1  0  0  0  0
  5 12  1  0  0  0  0
  5 13  1  0  0  0  0
  5 14  1  0  0  0  0
  7 15  1  0  0  0  0
  7 16  1  0  0  0  0
  7 17  1  0  0  0  0
M  END
$$$$
